Circuit: *** SPICE deck for cell nor_1211753{lay} from library NOR_3_1211753

Ignoring BSIM parameter XL
Ignoring BSIM parameter XW
Ignoring BSIM parameter XL
Ignoring BSIM parameter XW
Warning: Pd = 0 is less than W.
Warning: Ps = 0 is less than W.
Warning: Ps = 1.29e-005 is less than W.
Warning: Pd = 0 is less than W.
Warning: Ps = 0 is less than W.
Direct Newton iteration for .op point succeeded.

vymax: MAX(v(y))=4.79352 FROM 0 TO 2e-007
vymin: MIN(v(y))=-0.000435271 FROM 0 TO 2e-007
tf=1.50927e-008 FROM 1.14468e-008 TO 2.65395e-008
tr=1.56125e-008 FROM 6.31156e-008 TO 7.87281e-008
tphl=1.7436e-009 FROM 1.5e-008 TO 1.67436e-008
tplh=-1.80256e-009 FROM 7.5e-008 TO 7.31974e-008


Date: Mon Dec 15 21:36:29 2025
Total elapsed time: 0.258 seconds.

tnom = 27
temp = 27
method = modified trap
totiter = 2325
traniter = 2316
tranpoints = 1099
accept = 1088
rejected = 11
matrix size = 13
fillins = 0
solver = Normal
Matrix Compiler1: 694 bytes object code size  0.3/0.2/[0.1]
Matrix Compiler2: 1.33 KB object code size  0.2/0.3/[0.2]

