Circuit: *** SPICE deck for cell nor_1211753{sch} from library NOR_3_1211753

Ignoring BSIM parameter XL
Ignoring BSIM parameter XW
Ignoring BSIM parameter XL
Ignoring BSIM parameter XW
Warning: Pd = 0 is less than W.
Warning: Ps = 0 is less than W.
Warning: Pd = 0 is less than W.
Warning: Ps = 0 is less than W.
Direct Newton iteration for .op point succeeded.

tf=3.15334e-009 FROM 1.61078e-008 TO 1.92611e-008
tr=2.70507e-009 FROM 7.2724e-008 TO 7.54291e-008
tphl=3.13709e-009 FROM 1.5e-008 TO 1.81371e-008
tplh=-7.71933e-010 FROM 7.5e-008 TO 7.42281e-008


Date: Tue Dec 16 02:49:15 2025
Total elapsed time: 0.208 seconds.

tnom = 27
temp = 27
method = modified trap
totiter = 2428
traniter = 2420
tranpoints = 1094
accept = 1087
rejected = 7
matrix size = 11
fillins = 0
solver = Normal
Matrix Compiler1: 522 bytes object code size  0.3/0.1/[0.1]
Matrix Compiler2: 999 bytes object code size  0.2/0.2/[0.1]

