Circuit: *** SPICE deck for cell triple_and{sch} from library application

Ignoring BSIM parameter XL
Ignoring BSIM parameter XW
Ignoring BSIM parameter XL
Ignoring BSIM parameter XW
Warning: Pd = 0 is less than W.
Warning: Ps = 0 is less than W.
Warning: Pd = 0 is less than W.
Warning: Ps = 0 is less than W.
Warning: Pd = 0 is less than W.
Warning: Ps = 0 is less than W.
Warning: Pd = 0 is less than W.
Warning: Ps = 0 is less than W.
Warning: Pd = 0 is less than W.
Warning: Ps = 0 is less than W.
Warning: Pd = 0 is less than W.
Warning: Ps = 0 is less than W.
Direct Newton iteration for .op point succeeded.


Measurement "tf" FAIL'ed

Measurement "tr" FAIL'ed


Date: Mon Dec 15 18:51:19 2025
Total elapsed time: 0.195 seconds.

tnom = 27
temp = 27
method = modified trap
totiter = 2458
traniter = 2427
tranpoints = 1080
accept = 1078
rejected = 2
matrix size = 19
fillins = 0
solver = Normal
Thread vector: 40.0/36.0[2] 9.9/5.2[2] 3.0/3.2[1] 0.2/3.5[1]  2592/500
Matrix Compiler1: 1.46 KB object code size  0.9/0.5/[0.4]
Matrix Compiler2: 2.07 KB object code size  1.9/0.7/[0.2]

