Circuit: *** SPICE deck for cell inv_1211753{lay} from library inverter_1211753

Ignoring BSIM parameter XL
Ignoring BSIM parameter XW
Ignoring BSIM parameter XL
Ignoring BSIM parameter XW
Direct Newton iteration for .op point succeeded.

tf=3.61342e-009 FROM 1.52984e-008 TO 1.89118e-008
tr=3.30458e-009 FROM 5.32561e-008 TO 5.65607e-008
tphl=2.6881e-009 FROM 1.5e-008 TO 1.76881e-008
tplh=2.79772e-010 FROM 5.5e-008 TO 5.52798e-008


Date: Mon Dec 15 19:55:38 2025
Total elapsed time: 0.131 seconds.

tnom = 27
temp = 27
method = modified trap
totiter = 2117
traniter = 2111
tranpoints = 1054
accept = 1054
rejected = 0
matrix size = 5
fillins = 0
solver = Normal
Matrix Compiler1: 204 bytes object code size  0.1/0.1/[0.0]
Matrix Compiler2: 311 bytes object code size  0.1/0.1/[0.1]

