Circuit: *** SPICE deck for cell inv_1211753{sch} from library inverter_1211753

Ignoring BSIM parameter XL
Ignoring BSIM parameter XW
Ignoring BSIM parameter XL
Ignoring BSIM parameter XW
Warning: Pd = 0 is less than W.
Warning: Ps = 0 is less than W.
Warning: Pd = 0 is less than W.
Warning: Ps = 0 is less than W.
Direct Newton iteration for .op point succeeded.

tf=3.55314e-009 FROM 1.5277e-008 TO 1.88302e-008
tr=3.26086e-009 FROM 5.32341e-008 TO 5.64949e-008
tphl=2.64018e-009 FROM 1.5e-008 TO 1.76402e-008
tplh=2.38413e-010 FROM 5.5e-008 TO 5.52384e-008


Date: Tue Dec 16 02:48:35 2025
Total elapsed time: 0.171 seconds.

tnom = 27
temp = 27
method = modified trap
totiter = 2115
traniter = 2109
tranpoints = 1054
accept = 1054
rejected = 0
matrix size = 5
fillins = 0
solver = Normal
Matrix Compiler1: 204 bytes object code size  0.1/0.1/[0.1]
Matrix Compiler2: 311 bytes object code size  0.1/0.1/[0.1]

