Circuit: *** SPICE deck for cell nand_1211753{sch} from library nand_2_1211753

Ignoring BSIM parameter XL
Ignoring BSIM parameter XW
Ignoring BSIM parameter XL
Ignoring BSIM parameter XW
Warning: Pd = 0 is less than W.
Warning: Ps = 0 is less than W.
Warning: Pd = 0 is less than W.
Warning: Ps = 0 is less than W.
Direct Newton iteration for .op point succeeded.

tf=3.97486e-009 FROM 4.3529e-008 TO 4.75038e-008
tr=2.82862e-009 FROM 1.22744e-007 TO 1.25572e-007
tphl=9.05578e-010 FROM 4.5e-008 TO 4.59056e-008
tplh=-4.93724e-010 FROM 1.25e-007 TO 1.24506e-007


Date: Tue Dec 16 02:50:04 2025
Total elapsed time: 0.224 seconds.

tnom = 27
temp = 27
method = modified trap
totiter = 2327
traniter = 2315
tranpoints = 1064
accept = 1060
rejected = 4
matrix size = 8
fillins = 0
solver = Normal
Matrix Compiler1: 336 bytes object code size  0.1/0.1/[0.1]
Matrix Compiler2: 624 bytes object code size  0.1/0.2/[0.1]

