Circuit: *** SPICE deck for cell triple_and{sch} from library application

Ignoring BSIM parameter XL
Ignoring BSIM parameter XW
Ignoring BSIM parameter XL
Ignoring BSIM parameter XW
Warning: Pd = 0 is less than W.
Warning: Ps = 0 is less than W.
Warning: Pd = 0 is less than W.
Warning: Ps = 0 is less than W.
Warning: Pd = 0 is less than W.
Warning: Ps = 0 is less than W.
Warning: Pd = 0 is less than W.
Warning: Ps = 0 is less than W.
Direct Newton iteration for .op point succeeded.

tf=1.89549e-009 FROM 5.53864e-008 TO 5.72819e-008

Measurement "tr" FAIL'ed
tphl=4.12601e-008 FROM 1.5e-008 TO 5.62601e-008
tplh=-1.82859e-008 FROM 5.5e-008 TO 3.67141e-008


Date: Tue Dec 16 03:02:18 2025
Total elapsed time: 0.207 seconds.

tnom = 27
temp = 27
method = modified trap
totiter = 2490
traniter = 2475
tranpoints = 1080
accept = 1078
rejected = 2
matrix size = 14
fillins = 0
solver = Normal
Matrix Compiler1: 858 bytes object code size  0.4/0.3/[0.1]
Matrix Compiler2: 1.31 KB object code size  0.4/0.3/[0.2]

